[OPTIONS]
FLOW_UNITS CMS
INFILTRATION HORTON
FLOW_ROUTING KINWAVE
LINK_OFFSETS DEPTH
MIN_SLOPE 0
ALLOW_PONDING NO
SKIP_STEADY_STATE NO
START_DATE 01/01/2019
START_TIME 00:00:00
REPORT_START_DATE 01/01/2019
REPORT_START_TIME 00:00:00
END_DATE 01/09/2019
END_TIME 12:00:00
SWEEP_START 1/1
SWEEP_END 12/31
DRY_DAYS 5
REPORT_STEP 01:00:00
WET_STEP 00:15:00
DRY_STEP 01:00:00
ROUTING_STEP 0:01:00

[RAINGAGES]
rg1 INTENSITY 1:00 1 TIMESERIES TS1

[SUBCATCHMENTS]
sub01 rg1 01 17582.8239060314 80 500 0.5 0  
sub03 rg1 03 9468.7450874953 80 500 0.5 0  
sub06 rg1 06 13734.2570037437 80 500 0.5 0  
sub10 rg1 10 26427.2670455089 80 500 0.5 0  
sub14 rg1 14 36463.2274043864 80 500 0.5 0  
sub18 rg1 18 4086.78471369799 80 500 0.5 0  
sub20 rg1 20 37177.4656966233 80 500 0.5 0  
sub17 rg1 17 21877.9451731045 80 500 0.5 0  
sub33 rg1 33 9148.90499418127 80 500 0.5 0  
sub37 rg1 37 32829.2347745142 80 500 0.5 0  
sub38 rg1 38 7561.81784300855 80 500 0.5 0  
sub40 rg1 40 9252.4863008576 80 500 0.5 0  
sub50 rg1 50 30801.5233770014 80 500 0.5 0  
sub45 rg1 45 12965.3931024276 80 500 0.5 0  
sub43 rg1 43 6980.84743908999 80 500 0.5 0  
sub57 rg1 57 59486.4859862445 80 500 0.5 0  
sub53 rg1 53 67451.4805810356 80 500 0.5 0  
sub55 rg1 55 27712.6523558257 80 500 0.5 0  
sub54 rg1 54 155165.116095364 80 500 0.5 0  
sub52 rg1 52 42851.8323740517 80 500 0.5 0  
sub51 rg1 51 8908.86499657479 80 500 0.5 0  
sub02 rg1 02 32583.1773349391 80 500 0.5 0  
sub05 rg1 05 6600.60622199736 80 500 0.5 0  
sub04 rg1 04 6178.4980480596 80 500 0.5 0  
sub08 rg1 08 6531.60343721645 80 500 0.5 0  
sub09 rg1 09 8293.1773800036 80 500 0.5 0  
sub07 rg1 07 14101.3114777202 80 500 0.5 0  
sub11 rg1 11 4464.36882863887 80 500 0.5 0  
sub13 rg1 13 24417.7896581603 80 500 0.5 0  
sub12 rg1 12 11220.5514864684 80 500 0.5 0  
sub21 rg1 21 15040.8659916128 80 500 0.5 0  
sub19 rg1 19 14035.1567846712 80 500 0.5 0  
sub22 rg1 22 12383.2305470354 80 500 0.5 0  
sub23 rg1 23 4985.81487261879 80 500 0.5 0  
sub39 rg1 39 10689.2418221937 80 500 0.5 0  
sub41 rg1 41 3246.57553610917 80 500 0.5 0  
sub42 rg1 42 4882.37458790576 80 500 0.5 0  
sub15 rg1 15 5012.26501703099 80 500 0.5 0  
sub16 rg1 16 12424.7366759422 80 500 0.5 0  
sub32 rg1 32 12619.3804488031 80 500 0.5 0  
sub31 rg1 31 30553.0525117854 80 500 0.5 0  
sub30 rg1 30 11839.086561238 80 500 0.5 0  
sub29 rg1 29 10915.4335409934 80 500 0.5 0  
sub27 rg1 27 11528.2269036542 80 500 0.5 0  
sub24 rg1 24 5126.9449655259 80 500 0.5 0  
sub25 rg1 25 5922.88254037475 80 500 0.5 0  
sub28 rg1 28 20790.1172768014 80 500 0.5 0  
sub49 rg1 49 26683.886690112 80 500 0.5 0  
sub46 rg1 46 2728.98314632366 80 500 0.5 0  
sub47 rg1 47 8233.46539935304 80 500 0.5 0  
sub44 rg1 44 6427.05081123172 80 500 0.5 0  
sub48 rg1 48 5108.64337386355 80 500 0.5 0  
sub35 rg1 35 5783.31143909439 80 500 0.5 0  
sub36 rg1 36 4111.24180641856 80 500 0.5 0  
sub34 rg1 34 5308.11740349342 80 500 0.5 0  
sub26 rg1 26 4784.44482701557 80 500 0.5 0  
sub56 rg1 56 59301.3367956793 80 500 0.5 0  

[SUBAREAS]
sub01 0.01 0.1 0.05 0.05 25 OUTLET 100
sub03 0.01 0.1 0.05 0.05 25 OUTLET 100
sub06 0.01 0.1 0.05 0.05 25 OUTLET 100
sub10 0.01 0.1 0.05 0.05 25 OUTLET 100
sub14 0.01 0.1 0.05 0.05 25 OUTLET 100
sub18 0.01 0.1 0.05 0.05 25 OUTLET 100
sub20 0.01 0.1 0.05 0.05 25 OUTLET 100
sub17 0.01 0.1 0.05 0.05 25 OUTLET 100
sub33 0.01 0.1 0.05 0.05 25 OUTLET 100
sub37 0.01 0.1 0.05 0.05 25 OUTLET 100
sub38 0.01 0.1 0.05 0.05 25 OUTLET 100
sub40 0.01 0.1 0.05 0.05 25 OUTLET 100
sub50 0.01 0.1 0.05 0.05 25 OUTLET 100
sub45 0.01 0.1 0.05 0.05 25 OUTLET 100
sub43 0.01 0.1 0.05 0.05 25 OUTLET 100
sub57 0.01 0.1 0.05 0.05 25 OUTLET 100
sub53 0.01 0.1 0.05 0.05 25 OUTLET 100
sub55 0.01 0.1 0.05 0.05 25 OUTLET 100
sub54 0.01 0.1 0.05 0.05 25 OUTLET 100
sub52 0.01 0.1 0.05 0.05 25 OUTLET 100
sub51 0.01 0.1 0.05 0.05 25 OUTLET 100
sub02 0.01 0.1 0.05 0.05 25 OUTLET 100
sub05 0.01 0.1 0.05 0.05 25 OUTLET 100
sub04 0.01 0.1 0.05 0.05 25 OUTLET 100
sub08 0.01 0.1 0.05 0.05 25 OUTLET 100
sub09 0.01 0.1 0.05 0.05 25 OUTLET 100
sub07 0.01 0.1 0.05 0.05 25 OUTLET 100
sub11 0.01 0.1 0.05 0.05 25 OUTLET 100
sub13 0.01 0.1 0.05 0.05 25 OUTLET 100
sub12 0.01 0.1 0.05 0.05 25 OUTLET 100
sub21 0.01 0.1 0.05 0.05 25 OUTLET 100
sub19 0.01 0.1 0.05 0.05 25 OUTLET 100
sub22 0.01 0.1 0.05 0.05 25 OUTLET 100
sub23 0.01 0.1 0.05 0.05 25 OUTLET 100
sub39 0.01 0.1 0.05 0.05 25 OUTLET 100
sub41 0.01 0.1 0.05 0.05 25 OUTLET 100
sub42 0.01 0.1 0.05 0.05 25 OUTLET 100
sub15 0.01 0.1 0.05 0.05 25 OUTLET 100
sub16 0.01 0.1 0.05 0.05 25 OUTLET 100
sub32 0.01 0.1 0.05 0.05 25 OUTLET 100
sub31 0.01 0.1 0.05 0.05 25 OUTLET 100
sub30 0.01 0.1 0.05 0.05 25 OUTLET 100
sub29 0.01 0.1 0.05 0.05 25 OUTLET 100
sub27 0.01 0.1 0.05 0.05 25 OUTLET 100
sub24 0.01 0.1 0.05 0.05 25 OUTLET 100
sub25 0.01 0.1 0.05 0.05 25 OUTLET 100
sub28 0.01 0.1 0.05 0.05 25 OUTLET 100
sub49 0.01 0.1 0.05 0.05 25 OUTLET 100
sub46 0.01 0.1 0.05 0.05 25 OUTLET 100
sub47 0.01 0.1 0.05 0.05 25 OUTLET 100
sub44 0.01 0.1 0.05 0.05 25 OUTLET 100
sub48 0.01 0.1 0.05 0.05 25 OUTLET 100
sub35 0.01 0.1 0.05 0.05 25 OUTLET 100
sub36 0.01 0.1 0.05 0.05 25 OUTLET 100
sub34 0.01 0.1 0.05 0.05 25 OUTLET 100
sub26 0.01 0.1 0.05 0.05 25 OUTLET 100
sub56 0.01 0.1 0.05 0.05 25 OUTLET 100

[INFILTRATION]
sub01 3 0.5 4 7 0
sub03 3 0.5 4 7 0
sub06 3 0.5 4 7 0
sub10 3 0.5 4 7 0
sub14 3 0.5 4 7 0
sub18 3 0.5 4 7 0
sub20 3 0.5 4 7 0
sub17 3 0.5 4 7 0
sub33 3 0.5 4 7 0
sub37 3 0.5 4 7 0
sub38 3 0.5 4 7 0
sub40 3 0.5 4 7 0
sub50 3 0.5 4 7 0
sub45 3 0.5 4 7 0
sub43 3 0.5 4 7 0
sub57 3 0.5 4 7 0
sub53 3 0.5 4 7 0
sub55 3 0.5 4 7 0
sub54 3 0.5 4 7 0
sub52 3 0.5 4 7 0
sub51 3 0.5 4 7 0
sub02 3 0.5 4 7 0
sub05 3 0.5 4 7 0
sub04 3 0.5 4 7 0
sub08 3 0.5 4 7 0
sub09 3 0.5 4 7 0
sub07 3 0.5 4 7 0
sub11 3 0.5 4 7 0
sub13 3 0.5 4 7 0
sub12 3 0.5 4 7 0
sub21 3 0.5 4 7 0
sub19 3 0.5 4 7 0
sub22 3 0.5 4 7 0
sub23 3 0.5 4 7 0
sub39 3 0.5 4 7 0
sub41 3 0.5 4 7 0
sub42 3 0.5 4 7 0
sub15 3 0.5 4 7 0
sub16 3 0.5 4 7 0
sub32 3 0.5 4 7 0
sub31 3 0.5 4 7 0
sub30 3 0.5 4 7 0
sub29 3 0.5 4 7 0
sub27 3 0.5 4 7 0
sub24 3 0.5 4 7 0
sub25 3 0.5 4 7 0
sub28 3 0.5 4 7 0
sub49 3 0.5 4 7 0
sub46 3 0.5 4 7 0
sub47 3 0.5 4 7 0
sub44 3 0.5 4 7 0
sub48 3 0.5 4 7 0
sub35 3 0.5 4 7 0
sub36 3 0.5 4 7 0
sub34 3 0.5 4 7 0
sub26 3 0.5 4 7 0
sub56 3 0.5 4 7 0

[JUNCTIONS]
02 2.97 5 0 0 0 c(113.997083814392, 22.4633212442521)
0201 2.75 5 0 0 0 c(113.99685591503, 22.4622344933858)
0202 2.37 5 0 0 0 c(113.997337465458, 22.461903036597)
3001 3.32 5 0 0 0 c(113.997206133523, 22.4622595089925)
0401 3.42 5 0 0 0 c(113.997697064805, 22.4653614442231)
0402 2.69 5 0 0 0 c(113.99812858402, 22.4660806429157)
05 2.62 5 0 0 0 c(113.99752820946, 22.4662932755726)
07 3.28 5 0 0 0 c(113.998147345725, 22.4664746387212)
06 2 5 0 0 0 c(113.997324957655, 22.4678536240405)
08 2 5 0 0 0 c(113.997750222969, 22.4687104085699)
09 2.01 5 0 0 0 c(113.998794624549, 22.4690637540145)
1101 2.06 5 0 0 0 c(113.999538838848, 22.4685759496839)
1201 1.49 5 0 0 0 c(114.00118986889, 22.470458374088)
13 2.21 5 0 0 0 c(113.99980775662, 22.4718092168497)
1401 2.8 5 0 0 0 c(114.002559473357, 22.4698705073306)
17 3.8 5 0 0 0 c(114.00339124228, 22.467594087121)
20 3.55 5 0 0 0 c(114.002690805292, 22.4654052215348)
35 2.57 5 0 0 0 c(114.002296809487, 22.4620468763355)
36 2.2 5 0 0 0 c(114.004047901956, 22.4624471260427)
38 2.46 5 0 0 0 c(114.002859660637, 22.4645046596937)
41 3.67 5 0 0 0 c(114.004141710481, 22.4669436813468)
42 3.12 5 0 0 0 c(114.004954717698, 22.4664308614095)
40 2.71 5 0 0 0 c(114.004854655272, 22.4656991549136)
45 2.81 5 0 0 0 c(114.00522050852, 22.4655334265192)
46 4.1 5 0 0 0 c(114.00660262079, 22.4647641966132)
50 2.45 5 0 0 0 c(114.005476918488, 22.4622751437467)
3601 2.17 5 0 0 0 c(114.004319946678, 22.4620875266964)
51 1.24 5 0 0 0 c(114.008047272077, 22.4622438742383)
48 1.1 5 0 0 0 c(114.008147334503, 22.4637197950335)
4801 1 5 0 0 0 c(114.008116064995, 22.4641262986424)
4802 0.9 5 0 0 0 c(114.008597615424, 22.4649142902534)
55 2.58 5 0 0 0 c(114.00395096648, 22.4672407416764)
53 2.19 5 0 0 0 c(114.005132953896, 22.4664840195737)
5301 2.08 5 0 0 0 c(114.005658281637, 22.4661275471783)
5302 1.98 5 0 0 0 c(114.007152964137, 22.4652770165505)
43 3.25 5 0 0 0 c(114.00582088308, 22.465902406718)
44 1.95 5 0 0 0 c(114.007446897516, 22.4649893370735)
47 4 5 0 0 0 c(114.007465659221, 22.4647704505149)
56 3.2 5 0 0 0 c(114.002969103917, 22.4693920838525)
1202 1.3 5 0 0 0 c(114.002093557682, 22.4712119692398)
30 4.01 5 0 0 0 c(113.997266318264, 22.4629375679315)
01 2 5 0 0 0 c(113.995323709099, 22.4636801934621)
29 4.54 5 0 0 0 c(113.997568639722, 22.4643127429746)
27 3.95 5 0 0 0 c(113.997767086628, 22.4648956807606)
24 4.08 5 0 0 0 c(113.998070958452, 22.4655778419996)
32 2.39 5 0 0 0 c(113.998046152589, 22.4619561859673)
33 2.46 5 0 0 0 c(114.000501933049, 22.4620057976938)
25 2.86 5 0 0 0 c(113.999323654546, 22.4655902449312)
26 3.11 5 0 0 0 c(114.000874020998, 22.4651313364614)
03 2 5 0 0 0 c(113.996215172473, 22.4656259033596)
04 4.48 5 0 0 0 c(113.997039967425, 22.4654026505905)
10 2.01 5 0 0 0 c(113.998604287175, 22.4705002554852)
11 2.54 5 0 0 0 c(113.999652334897, 22.4690119036911)
12 2.36 5 0 0 0 c(114.000681778221, 22.4700103396863)
15 3.99 5 0 0 0 c(113.999999616982, 22.4688072553195)
16 2.95 5 0 0 0 c(114.001115880828, 22.4675359548287)
14 3.1 5 0 0 0 c(114.002715859007, 22.4689746948963)
18 3.99 5 0 0 0 c(113.999553111444, 22.4681685043412)
19 2.9 5 0 0 0 c(114.000291085875, 22.4678522295849)
21 3.8 5 0 0 0 c(113.998703510628, 22.4669778229059)
22 4.03 5 0 0 0 c(113.999336060141, 22.4658553575945)
23 2.93 5 0 0 0 c(114.000278682944, 22.4655576872357)
28 2.25 5 0 0 0 c(114.001903466986, 22.4641251486339)
31 2.19 5 0 0 0 c(114.001692617148, 22.4633313610104)
34 2.06 5 0 0 0 c(114.001698818614, 22.4625871851133)
37 3.58 5 0 0 0 c(114.002697254609, 22.4643763079991)
39 3.12 5 0 0 0 c(114.004346844514, 22.4648724252638)
49 2.71 5 0 0 0 c(114.004249171428, 22.4635577145124)
57 2 5 0 0 0 c(114.001157740722, 22.4721374424587)
54 1.49 5 0 0 0 c(114.005691012228, 22.4720196146083)
2001 2.33 5 0 0 0 c(114.002420901789, 22.4646480097197)
4001 2.51 5 0 0 0 c(114.005273576061, 22.466294498892)
2201 2.83 5 0 0 0 c(113.999171333705, 22.4657332662362)
52 1 5 0 0 0 c(114.009238315248, 22.4660138363786)

[OUTFALLS]
out01 1.91 FREE  NO  
out02 1.91 FREE  NO  
out03 1.91 FREE  NO  
out04 1.91 FREE  NO  
out05 1.96 FREE  NO  
out06 1.91 FREE  NO  
out07 1.91 FREE  NO  
out08 1.52 FREE  NO  
out09 1.91 FREE  NO  
out12 1.25 FREE  NO  
out14 2.5 FREE  NO  
out13 2.04 FREE  NO  
out11 1.25 FREE  NO  
out10 1.91 FREE  NO  
HKWP 0.8 FREE  NO  

[CONDUITS]
L01_out02 01 out02 31 0.01 0 0
L02_0201 02 0201 123 0.01 0 0
L0201_0202 0201 0202 62 0.01 0 0
L0202_out01 0202 out01 271 0.01 0 0
L30_3001 30 3001 76 0.01 0 0
L3001_0202 3001 0202 41 0.01 0 0
L03_out03 03 out03 30 0.01 0 0
L29_27 29 27 71 0.01 0 0
L04_0401 04 0401 66 0.01 0 0
L27_0401 27 0401 52 0.01 0 0
L0401_0402 0401 0402 88 0.01 0 0
L24_0402 24 0402 55 0.01 0 0
L0402_05 0402 05 69 0.01 0 0
L05_out04 05 out04 117 0.01 0 0
L32_0202 32 0202 73 0.01 0 0
L33_32 33 32 252 0.01 0 0
L26_23 26 23 78 0.01 0 0
L23_25 23 25 88 0.01 0 0
L25_2201 25 2201 20 0.01 0 0
L2201_0402 2201 0402 112 0.01 0 0
L21_07 21 07 79 0.01 0 0
L07_0402 07 0402 42 0.01 0 0
L18_07 18 07 239 0.01 0 0
L06_out05 06 out05 32 0.01 0 0
L08_out06 08 out06 33 0.01 0 0
L11_1101 11 1101 53 0.01 0 0
L15_1101 15 1101 56 0.01 0 0
L1101_09 1101 09 89 0.01 0 0
L09_out07 09 out07 111 0.01 0 0
L10_out08 10 out08 83 0.01 0 0
L13_out09 13 out09 35 0.01 0 0
L12_1201 12 1201 71 0.01 0 0
L1201_1202 1201 1202 120 0.01 0 0
L1202_out11 1202 out11 205 0.01 0 0
L57_out10 57 out10 68 0.01 0 0
L56_1401 56 1401 69 0.01 0 0
L17_14 17 14 165 0.01 0 0
L14_1401 14 1401 100 0.01 0 0
L1401_out14 1401 out14 34 0.01 0 0
L20_2001 20 2001 91 0.01 0 0
L38_2001 38 2001 46 0.01 0 0
L37_2001 37 2001 39 0.01 0 0
L2001_28 2001 28 73 0.01 0 0
L28_31 28 31 91 0.01 0 0
L31_34 31 34 81 0.01 0 0
L34_out13 34 out13 56 0.01 0 0
L35_3601 35 3601 210 0.01 0 0
L36_3601 36 3601 49 0.01 0 0
L49_36 49 36 127 0.01 0 0
L39_49 39 49 147 0.01 0 0
L46_45 46 45 166 0.01 0 0
L45_40 45 40 44 0.01 0 0
L40_4001 40 4001 79 0.01 0 0
L41_42 41 42 99 0.01 0 0
L42_4001 42 4001 36 0.01 0 0
L55_4001 55 4001 169 0.01 0 0
L4001_5301 4001 5301 45 0.01 0 0
L53_5301 53 5301 66 0.01 0 0
L5301_5302 5301 5302 181 0.01 0 0
L43_5302 43 5302 157 0.01 0 0
L5302_4802 5302 4802 154 0.01 0 0
L44_4802 44 4802 120 0.01 0 0
L47_4801 47 4801 102 0.01 0 0
L48_4801 48 4801 44 0.01 0 0
L4801_4802 4801 4802 101 0.01 0 0
L3601_51 3601 51 388 0.01 0 0
L51_48 51 48 164 0.01 0 0
L50_3601 50 3601 118 0.01 0 0
L22_0402 22 0402 22 0.01 0 0
L54_out12 54 out12 70 0.01 0 0
L16_19 16 19 97 0.01 0 0
L19_1101 19 1101 103 0.01 0 0
L52_HKWP 52 HKWP 145 0.01 0 0
L4802_HKWP 4802 HKWP 231 0.01 0 0

[XSECTIONS]
L01_out02 CIRCULAR 15 0 0 0 1
L02_0201 CIRCULAR 15 0 0 0 1
L0201_0202 CIRCULAR 15 0 0 0 1
L0202_out01 CIRCULAR 15 0 0 0 1
L30_3001 CIRCULAR 15 0 0 0 1
L3001_0202 CIRCULAR 15 0 0 0 1
L03_out03 CIRCULAR 15 0 0 0 1
L29_27 CIRCULAR 15 0 0 0 1
L04_0401 CIRCULAR 15 0 0 0 1
L27_0401 CIRCULAR 15 0 0 0 1
L0401_0402 CIRCULAR 15 0 0 0 1
L24_0402 CIRCULAR 15 0 0 0 1
L0402_05 CIRCULAR 15 0 0 0 1
L05_out04 CIRCULAR 15 0 0 0 1
L32_0202 CIRCULAR 15 0 0 0 1
L33_32 CIRCULAR 15 0 0 0 1
L26_23 CIRCULAR 15 0 0 0 1
L23_25 CIRCULAR 15 0 0 0 1
L25_2201 CIRCULAR 15 0 0 0 1
L2201_0402 CIRCULAR 15 0 0 0 1
L21_07 CIRCULAR 15 0 0 0 1
L07_0402 CIRCULAR 15 0 0 0 1
L18_07 CIRCULAR 15 0 0 0 1
L06_out05 CIRCULAR 15 0 0 0 1
L08_out06 CIRCULAR 15 0 0 0 1
L11_1101 CIRCULAR 15 0 0 0 1
L15_1101 CIRCULAR 15 0 0 0 1
L1101_09 CIRCULAR 15 0 0 0 1
L09_out07 CIRCULAR 15 0 0 0 1
L10_out08 CIRCULAR 15 0 0 0 1
L13_out09 CIRCULAR 15 0 0 0 1
L12_1201 CIRCULAR 15 0 0 0 1
L1201_1202 CIRCULAR 15 0 0 0 1
L1202_out11 CIRCULAR 15 0 0 0 1
L57_out10 CIRCULAR 15 0 0 0 1
L56_1401 CIRCULAR 15 0 0 0 1
L17_14 CIRCULAR 15 0 0 0 1
L14_1401 CIRCULAR 15 0 0 0 1
L1401_out14 CIRCULAR 15 0 0 0 1
L20_2001 CIRCULAR 15 0 0 0 1
L38_2001 CIRCULAR 15 0 0 0 1
L37_2001 CIRCULAR 15 0 0 0 1
L2001_28 CIRCULAR 15 0 0 0 1
L28_31 CIRCULAR 15 0 0 0 1
L31_34 CIRCULAR 15 0 0 0 1
L34_out13 CIRCULAR 15 0 0 0 1
L35_3601 CIRCULAR 15 0 0 0 1
L36_3601 CIRCULAR 15 0 0 0 1
L49_36 CIRCULAR 15 0 0 0 1
L39_49 CIRCULAR 15 0 0 0 1
L46_45 CIRCULAR 15 0 0 0 1
L45_40 CIRCULAR 15 0 0 0 1
L40_4001 CIRCULAR 15 0 0 0 1
L41_42 CIRCULAR 15 0 0 0 1
L42_4001 CIRCULAR 15 0 0 0 1
L55_4001 CIRCULAR 15 0 0 0 1
L4001_5301 CIRCULAR 15 0 0 0 1
L53_5301 CIRCULAR 15 0 0 0 1
L5301_5302 CIRCULAR 15 0 0 0 1
L43_5302 CIRCULAR 15 0 0 0 1
L5302_4802 CIRCULAR 15 0 0 0 1
L44_4802 CIRCULAR 15 0 0 0 1
L47_4801 CIRCULAR 15 0 0 0 1
L48_4801 CIRCULAR 15 0 0 0 1
L4801_4802 CIRCULAR 15 0 0 0 1
L3601_51 CIRCULAR 15 0 0 0 1
L51_48 CIRCULAR 15 0 0 0 1
L50_3601 CIRCULAR 15 0 0 0 1
L22_0402 CIRCULAR 15 0 0 0 1
L54_out12 CIRCULAR 15 0 0 0 1
L16_19 CIRCULAR 15 0 0 0 1
L19_1101 CIRCULAR 15 0 0 0 1
L52_HKWP CIRCULAR 15 0 0 0 1
L4802_HKWP CIRCULAR 15 0 0 0 1

[TIMESERIES]
TS1 FILE /home/jlong/workspace/SWMM_CFD/Case/SWMM/ts.dat

[REPORT]
INPUT NO
CONTROLS NO
SUBCATCHMENTS ALL
NODES ALL
LINKS ALL

[COORDINATES]
02 113.997083814392 22.4633212442521
0201 113.99685591503 22.4622344933858
0202 113.997337465458 22.461903036597
3001 113.997206133523 22.4622595089925
0401 113.997697064805 22.4653614442231
0402 113.99812858402 22.4660806429157
05 113.99752820946 22.4662932755726
07 113.998147345725 22.4664746387212
06 113.997324957655 22.4678536240405
08 113.997750222969 22.4687104085699
09 113.998794624549 22.4690637540145
1101 113.999538838848 22.4685759496839
1201 114.00118986889 22.470458374088
13 113.99980775662 22.4718092168497
1401 114.002559473357 22.4698705073306
17 114.00339124228 22.467594087121
20 114.002690805292 22.4654052215348
35 114.002296809487 22.4620468763355
36 114.004047901956 22.4624471260427
38 114.002859660637 22.4645046596937
41 114.004141710481 22.4669436813468
42 114.004954717698 22.4664308614095
40 114.004854655272 22.4656991549136
45 114.00522050852 22.4655334265192
46 114.00660262079 22.4647641966132
50 114.005476918488 22.4622751437467
3601 114.004319946678 22.4620875266964
51 114.008047272077 22.4622438742383
48 114.008147334503 22.4637197950335
4801 114.008116064995 22.4641262986424
4802 114.008597615424 22.4649142902534
55 114.00395096648 22.4672407416764
53 114.005132953896 22.4664840195737
5301 114.005658281637 22.4661275471783
5302 114.007152964137 22.4652770165505
43 114.00582088308 22.465902406718
44 114.007446897516 22.4649893370735
47 114.007465659221 22.4647704505149
56 114.002969103917 22.4693920838525
1202 114.002093557682 22.4712119692398
30 113.997266318264 22.4629375679315
01 113.995323709099 22.4636801934621
29 113.997568639722 22.4643127429746
27 113.997767086628 22.4648956807606
24 113.998070958452 22.4655778419996
32 113.998046152589 22.4619561859673
33 114.000501933049 22.4620057976938
25 113.999323654546 22.4655902449312
26 114.000874020998 22.4651313364614
03 113.996215172473 22.4656259033596
04 113.997039967425 22.4654026505905
10 113.998604287175 22.4705002554852
11 113.999652334897 22.4690119036911
12 114.000681778221 22.4700103396863
15 113.999999616982 22.4688072553195
16 114.001115880828 22.4675359548287
14 114.002715859007 22.4689746948963
18 113.999553111444 22.4681685043412
19 114.000291085875 22.4678522295849
21 113.998703510628 22.4669778229059
22 113.999336060141 22.4658553575945
23 114.000278682944 22.4655576872357
28 114.001903466986 22.4641251486339
31 114.001692617148 22.4633313610104
34 114.001698818614 22.4625871851133
37 114.002697254609 22.4643763079991
39 114.004346844514 22.4648724252638
49 114.004249171428 22.4635577145124
57 114.001157740722 22.4721374424587
54 114.005691012228 22.4720196146083
2001 114.002420901789 22.4646480097197
4001 114.005273576061 22.466294498892
2201 113.999171333705 22.4657332662362
52 114.009238315248 22.4660138363786
out01 113.994764580595 22.4623979996009
out02 113.995050081026 22.4637684016743
out03 113.995963682409 22.4657383546547
out04 113.996606058381 22.4669231814473
out05 113.997020034007 22.4679652580239
out06 113.997444715899 22.468832465586
out07 113.997983597965 22.4697389294574
out08 113.99874731162 22.4712413754806
out09 113.999596675405 22.4720728954887
out12 114.005974041304 22.472558246223
out14 114.002233985645 22.4698459921195
out13 114.001748634911 22.4621232054352
out11 114.001071195101 22.4727928768872
out10 114.000957355858 22.4727533255318
HKWP 114.008765992449 22.4673562274925

[POLYGONS]
sub01 113.995813624898 22.4649514939529
sub01 113.996222921641 22.4648398675683
sub01 113.995416731086 22.4620864167493
sub01 113.994763683893 22.4620799004318
sub01 113.995813624898 22.4649514939529
sub03 113.996737643303 22.4665266662683
sub03 113.997184148842 22.4662910105676
sub03 113.996495786137 22.4648522705
sub03 113.99601240735 22.4650490873168
sub03 113.996737643303 22.4665266662683
sub06 113.997599647051 22.4684677250664
sub06 113.998170181905 22.468188659105
sub06 113.997450811871 22.466632091187
sub06 113.996747766718 22.4668389242709
sub06 113.997599647051 22.4684677250664
sub10 113.998232360161 22.4696138652848
sub10 113.999342258943 22.4715653572378
sub10 113.999900390866 22.4712242766184
sub10 114.000371702267 22.4708211813408
sub10 113.99970194396 22.4700894083754
sub10 113.99931745308 22.469649104303
sub10 113.998914357802 22.4691591885041
sub10 113.998232360161 22.4696138652848
sub14 114.000222867088 22.4688723707104
sub14 114.001717420348 22.4703049093122
sub14 114.002052299501 22.470280103449
sub14 114.002455394779 22.4694243011674
sub14 114.002864691522 22.4681530006766
sub14 114.002473999176 22.4679483523049
sub14 114.001587189566 22.4687483413942
sub14 114.00112207963 22.468171605074
sub14 114.000222867088 22.4688723707104
sub18 113.999689541028 22.4683033862225
sub18 114.000167053896 22.4679499026714
sub18 113.999869383537 22.4676522323126
sub18 113.999869383537 22.4674413824751
sub18 113.999714346891 22.4674227780777
sub18 113.999367064806 22.4678630821501
sub18 113.999689541028 22.4683033862225
sub20 114.000979122028 22.466880802477
sub20 114.001335997568 22.4672234029953
sub20 114.003102381641 22.4660966275496
sub20 114.002294156668 22.4648538208664
sub20 114.000880222464 22.4653747439943
sub20 114.001277116275 22.4656987705828
sub20 114.001153086959 22.465922023352
sub20 114.000526738912 22.4662196937108
sub20 114.000979122028 22.466880802477
sub17 114.001548414673 22.4672829148331
sub17 114.002922010475 22.4681015224322
sub17 114.003587996318 22.4670817316096
sub17 114.003109318993 22.4662006878376
sub17 114.001548414673 22.4672829148331
sub33 113.999977909188 22.4627329195598
sub33 114.000385658229 22.4627205166282
sub33 114.000391859695 22.4623856374746
sub33 114.000416665558 22.4621685861713
sub33 113.999010480522 22.4621375788422
sub33 113.999022883454 22.4627453224915
sub33 113.999977909188 22.4627329195598
sub37 114.002401709035 22.4643761641209
sub37 114.004052798938 22.4639460482638
sub37 114.003880956732 22.4628918321212
sub37 114.002386403472 22.4626933852153
sub37 114.001798159364 22.4626695753973
sub37 114.001888344947 22.4636616168098
sub37 114.002401709035 22.4643761641209
sub38 114.002827482727 22.4652941249388
sub38 114.004123589081 22.4643763079991
sub38 114.004005761231 22.4642336742855
sub38 114.002486402108 22.4647235900844
sub38 114.002827482727 22.4652941249388
sub40 114.003584061556 22.4664724034425
sub40 114.004811951786 22.4657592348745
sub40 114.004517601558 22.4652086464251
sub40 114.003303564864 22.4660619407869
sub40 114.003584061556 22.4664724034425
sub50 114.004855362047 22.4630662483471
sub50 114.005940618563 22.4630848527445
sub50 114.005965424427 22.4632460908555
sub50 114.006380922636 22.4639034462312
sub50 114.007131299999 22.4633019040478
sub50 114.007194109556 22.4623841706737
sub50 114.006173445512 22.4623342080981
sub50 114.004284827192 22.4623592812449
sub50 114.004247618398 22.4630538454154
sub50 114.004855362047 22.4630662483471
sub45 114.004714448936 22.4651058868907
sub45 114.004964193627 22.4655915015681
sub45 114.006101919443 22.4650920121856
sub45 114.006501076036 22.4647638996122
sub45 114.006091779293 22.4641995662236
sub45 114.004714448936 22.4651058868907
sub43 114.005075191267 22.4657302486188
sub43 114.005352685369 22.466160364476
sub43 114.006054570498 22.4657538085919
sub43 114.006513478968 22.4655367572886
sub43 114.006439061378 22.4654003250408
sub43 114.006284024733 22.4654189294382
sub43 114.006191002746 22.4651708708059
sub43 114.005558453233 22.4654685411647
sub43 114.005075191267 22.4657302486188
sub57 114.00053816271 22.472501104693
sub57 114.001037652092 22.4726676011538
sub57 114.003826467811 22.47290347114
sub57 114.00560243006 22.4724039817575
sub57 114.005089065973 22.4719322417851
sub57 114.00497784366 22.4712320284506
sub57 114.004419711738 22.4712816401771
sub57 114.00374995343 22.4712320284506
sub57 114.003489491866 22.4717281457153
sub57 114.002249198705 22.4712568343139
sub57 114.001981132037 22.4717657453243
sub57 114.00053816271 22.472501104693
sub53 114.004067879826 22.467433067375
sub53 114.004624605669 22.4677471178501
sub53 114.005005817742 22.4678947026097
sub53 114.005560805945 22.467755955559
sub53 114.006656907645 22.4682276955314
sub53 114.006948276452 22.4679918255452
sub53 114.008002754037 22.4661048656557
sub53 114.007947255217 22.465369506287
sub53 114.007586512885 22.4650781374805
sub53 114.006323914724 22.465966118605
sub53 114.004981481209 22.4667478663383
sub53 114.004067879826 22.467433067375
sub55 114.004880945397 22.4702117783564
sub55 114.005893798867 22.4680611990706
sub55 114.005449808304 22.4679363267249
sub55 114.005089065973 22.4680057002503
sub55 114.004381930302 22.4677542553609
sub55 114.004062337797 22.4675339602779
sub55 114.00365997135 22.4677837049692
sub55 114.00360447253 22.4680750737756
sub55 114.004603451295 22.4686716860936
sub55 114.00464507541 22.4700314071905
sub55 114.004880945397 22.4702117783564
sub54 114.005297186549 22.4719738659003
sub54 114.005796675931 22.4723346082321
sub54 114.006795654696 22.4723207335271
sub54 114.007100898208 22.4719738659003
sub54 114.009473472775 22.4673952132272
sub54 114.007975004627 22.4664933573977
sub54 114.006878902927 22.4683109437618
sub54 114.006462661774 22.468338693172
sub54 114.006004796507 22.4680473243655
sub54 114.004936444217 22.4702811518818
sub54 114.005102940678 22.4711552583012
sub54 114.005172314203 22.4718489935547
sub54 114.005297186549 22.4719738659003
sub52 114.008044378152 22.4663823597571
sub52 114.00957059571 22.4672425914714
sub52 114.009737092171 22.4666737285636
sub52 114.010139458618 22.4650226386602
sub52 114.009084981033 22.4643427781118
sub52 114.008418995189 22.4651336363008
sub52 114.008169250498 22.4654250051073
sub52 114.008044378152 22.4663823597571
sub51 114.007235949734 22.4633383376594
sub51 114.007924312439 22.4633941508517
sub51 114.007986327097 22.463127487822
sub51 114.008091651539 22.4623627581413
sub51 114.007795444841 22.4623591893859
sub51 114.007249425265 22.4623663268967
sub51 114.0072421512 22.4627429969418
sub51 114.007235949734 22.4633383376594
sub02 113.996272533368 22.4648150617051
sub02 113.997227559102 22.464430570825
sub02 113.996681830111 22.4620492079545
sub02 113.995503551607 22.4621112226125
sub02 113.996272533368 22.4648150617051
sub05 113.996960896073 22.4654972229441
sub05 113.997332984021 22.4662910105676
sub05 113.997946929136 22.4659685343455
sub05 113.997636855846 22.4652615672433
sub05 113.996960896073 22.4654972229441
sub04 113.996923687278 22.4653855965595
sub04 113.997643057311 22.4652243584485
sub04 113.997320581089 22.4644925854831
sub04 113.99663841985 22.464753047047
sub04 113.996923687278 22.4653855965595
sub08 113.997686467572 22.4684987323954
sub08 113.998052354055 22.4694165493351
sub08 113.99859188158 22.469032058455
sub08 113.998201189234 22.4682382708315
sub08 113.997686467572 22.4684987323954
sub09 113.998629090375 22.4690289577221
sub09 113.999367064806 22.4685266389916
sub09 113.999032185653 22.4678630821501
sub09 113.998225995097 22.4682165657012
sub09 113.998629090375 22.4690289577221
sub07 113.9982073907 22.4681483495773
sub07 113.998957768063 22.467832074821
sub07 113.998033749657 22.4663251186295
sub07 113.9974818192 22.4665855801935
sub07 113.9982073907 22.4681483495773
sub11 113.999342258943 22.4696242984397
sub11 113.999850779139 22.469258411957
sub11 113.999478691191 22.4687746976239
sub11 113.998951566597 22.4691157782434
sub11 113.999342258943 22.4696242984397
sub13 113.999481791924 22.4715653572378
sub13 114.000275579547 22.4721482950238
sub13 114.000926733457 22.4719312437205
sub13 114.00194377385 22.4710940458364
sub13 114.001007352513 22.4703994816658
sub13 113.999481791924 22.4715653572378
sub12 113.999394971402 22.4696429028371
sub12 114.000412011795 22.470814979875
sub12 114.000957740786 22.4704118845974
sub12 113.999884887201 22.4692956207519
sub12 113.999394971402 22.4696429028371
sub21 113.999329856011 22.4678196718894
sub21 113.999639929302 22.4674537854067
sub21 113.999726749823 22.4671747194453
sub21 113.999038387118 22.46598403801
sub21 113.998288009755 22.4661824849159
sub21 113.998331420016 22.4663871332876
sub21 113.999249236956 22.4677948660262
sub21 113.999329856011 22.4678196718894
sub19 113.999739152755 22.4669204593471
sub19 113.999906592332 22.4673173531589
sub19 113.999900390866 22.4676584337784
sub19 114.000210464156 22.4679561041372
sub19 114.001128281096 22.4673669648854
sub19 114.00112207963 22.4671561150479
sub19 114.000576350639 22.4664677523431
sub19 113.999739152755 22.4669204593471
sub22 113.999683339562 22.4669142578813
sub22 114.000576350639 22.4664305435483
sub22 114.000185658293 22.4656057485957
sub22 113.999094200311 22.4659654336126
sub22 113.999683339562 22.4669142578813
sub23 114.000508134515 22.466162330152
sub23 114.001109676698 22.4658894656565
sub23 114.001233706015 22.4657034216822
sub23 114.000818207805 22.465418154255
sub23 114.00020426269 22.4656041982293
sub23 114.000508134515 22.466162330152
sub39 114.003199570676 22.4658460553958
sub39 114.004384050645 22.4649778501826
sub39 114.00415459641 22.4643949123966
sub39 114.00288329592 22.4652941249388
sub39 114.003199570676 22.4658460553958
sub41 114.003621270351 22.4664848063741
sub41 114.003869328983 22.4669623192414
sub41 114.004346841851 22.4666584474167
sub41 114.004092581752 22.4662305462759
sub41 114.003621270351 22.4664848063741
sub42 114.00442125944 22.4666274400877
sub42 114.005115823611 22.4662057404127
sub42 114.004861563513 22.4657530334087
sub42 114.004135992013 22.4662057404127
sub42 114.00442125944 22.4666274400877
sub15 114.000173255361 22.4687793487233
sub15 114.000991848848 22.4682398211979
sub15 114.000681775558 22.467880136181
sub15 113.999918995263 22.4684072607748
sub15 114.000173255361 22.4687793487233
sub16 114.000756193147 22.4678615317836
sub16 114.001035259109 22.4681530006766
sub16 114.001165489891 22.4681281948134
sub16 114.001568585168 22.4686429164755
sub16 114.002430588916 22.4679235464417
sub16 114.001500369044 22.4673033998608
sub16 114.000756193147 22.4678615317836
sub32 113.997546934591 22.4628507474102
sub32 113.998991876125 22.4628445459444
sub32 113.998973271727 22.4621065715132
sub32 113.997466315536 22.4620879671157
sub32 113.997546934591 22.4628507474102
sub31 113.999255438422 22.4641344508326
sub31 114.001444555852 22.4636631394311
sub31 114.001382541194 22.4627763298205
sub31 113.999044588584 22.4627701283547
sub31 113.999007379789 22.4634894983885
sub31 113.999255438422 22.4641344508326
sub30 113.997732978566 22.4637189526234
sub30 113.998998077591 22.4635577145124
sub30 113.998991876125 22.4628755532734
sub30 113.99753453166 22.4628879562051
sub30 113.997732978566 22.4637189526234
sub29 113.997937626937 22.4645375461101
sub29 113.999239934757 22.4641964654907
sub29 113.998998077591 22.4635763189098
sub29 113.997732978566 22.4637561614183
sub29 113.997937626937 22.4645375461101
sub27 113.99811126798 22.465287923473