/*--------------------------------*- C++ -*----------------------------------*\
  =========                 |
  \\      /  F ield         | OpenFOAM: The Open Source CFD Toolbox
   \\    /   O peration     | Website:  https://openfoam.org
    \\  /    A nd           | Version:  8
     \\/     M anipulation  |
\*---------------------------------------------------------------------------*/
FoamFile
{
    version     2.0;
    format      ascii;
    class       dictionary;
    object      blockMeshDict;
}

// * * * * * * * * * * * * * * * * * * * * * * * * * * * * * * * * * * * * * //

W 1430;
L 1490;
H 9;
L1 #calc "870/$L-0.01";
L2 #calc "1-$L1";
W1 #calc "520/$W-0.01";
W2 #calc "1-$W1";
convertToMeters 1;

vertices
(
    (0 0   0) // 0
    (1430 0   0) // 1
    (1430 1490   0) // 2
    (0 1490   0) // 3
    (0 0   9) // 4
    (1430 0   9) // 5
    (1430 1490   9) // 6
    (0 1490   9) // 7
);

blocks
(
    hex (0 1 2 3 4 5 6 7) (143 149 30)
    simpleGrading 
    (
       
        (
            ($W1 0.45 1)   // 20%, 30%... 
            (0.02 0.10 1)
            ($W2 0.45 1)
        )
        (
            ($L1 0.45 1)   // 20%, 30%... 
            (0.02 0.10 1)
            ($L2 0.45 1)
        )
        1
    )
    //hex (8 9 10 11 12 13 14 15) (80 80 15) simpleGrading (1 1 1)
);

edges
(
);
defaultPatch
{
    name walls;
    type wall;
}
boundary
(

    atmosphere
    {
        type patch;
        faces
        (
            (4 5 6 7)
        );
    }
 
);

// ************************************************************************* //
