/*--------------------------------*- C++ -*----------------------------------*\
  =========                 |
  \\      /  F ield         | OpenFOAM: The Open Source CFD Toolbox
   \\    /   O peration     | Website:  https://openfoam.org
    \\  /    A nd           | Version:  8
     \\/     M anipulation  |
\*---------------------------------------------------------------------------*/
FoamFile
{
    version     2.0;
    format      ascii;
    class       featureEdgeMesh;
    location    "constant/triSurface";
    object      walls.eMesh;
}
// * * * * * * * * * * * * * * * * * * * * * * * * * * * * * * * * * * * * * //


// points:

5851
(
(0 0 0)
(1430 0 0)
(0 0 10)
(1430 0 10)
(2 1490 0)
(0 1490 0)
(4 1490 0)
(6 1490 0)
(8 1490 0)
(10 1490 0)
(12 1490 0)
(14 1490 0)
(16 1490 0)
(18 1490 0)
(20 1490 0)
(22 1490 0)
(24 1490 0)
(26 1490 0)
(28 1490 0)
(30 1490 0)
(32 1490 0)
(34 1490 0)
(36 1490 0)
(38 1490 0)
(40 1490 0)
(42 1490 0)
(44 1490 0)
(46 1490 0)
(48 1490 0)
(50 1490 0)
(52 1490 0)
(54 1490 0)
(56 1490 0)
(58 1490 0)
(60 1490 0)
(62 1490 0)
(64 1490 0)
(66 1490 0)
(68 1490 0)
(70 1490 0)
(72 1490 0)
(74 1490 0)
(76 1490 0)
(78 1490 0)
(80 1490 0)
(82 1490 0)
(84 1490 0)
(86 1490 0)
(88 1490 0)
(90 1490 0)
(92 1490 0)
(94 1490 0)
(96 1490 0)
(98 1490 0)
(100 1490 0)
(102 1490 0)
(104 1490 0)
(106 1490 0)
(108 1490 0)
(110 1490 0)
(112 1490 0)
(114 1490 0)
(116 1490 0)
(118 1490 0)
(120 1490 0)
(122 1490 0)
(124 1490 0)
(126 1490 0)
(128 1490 0)
(130 1490 0)
(132 1490 0)
(134 1490 0)
(136 1490 0)
(138 1490 0)
(140 1490 0)
(142 1490 0)
(144 1490 0)
(146 1490 0)
(148 1490 0)
(150 1490 0)
(152 1490 0)
(154 1490 0)
(156 1490 0)
(158 1490 0)
(160 1490 0)
(162 1490 0)
(164 1490 0)
(166 1490 0)
(168 1490 0)
(170 1490 0)
(172 1490 0)
(174 1490 0)
(176 1490 0)
(178 1490 0)
(180 1490 0)
(182 1490 0)
(184 1490 0)
(186 1490 0)
(188 1490 0)
(190 1490 0)
(192 1490 0)
(194 1490 0)
(196 1490 0)
(198 1490 0)
(200 1490 0)
(202 1490 0)
(204 1490 0)
(206 1490 0)
(208 1490 0)
(210 1490 0)
(212 1490 0)
(214 1490 0)
(216 1490 0)
(218 1490 0)
(220 1490 0)
(222 1490 0)
(224 1490 0)
(226 1490 0)
(228 1490 0)
(230 1490 0)
(232 1490 0)
(234 1490 0)
(236 1490 0)
(238 1490 0)
(240 1490 0)
(242 1490 0)
(244 1490 0)
(246 1490 0)
(248 1490 0)
(250 1490 0)
(252 1490 0)
(254 1490 0)
(256 1490 0)
(258 1490 0)
(260 1490 0)
(262 1490 0)
(264 1490 0)
(266 1490 0)
(268 1490 0)
(270 1490 0)
(272 1490 0)
(274 1490 0)
(276 1490 0)
(278 1490 0)
(280 1490 0)
(282 1490 0)
(284 1490 0)
(286 1490 0)
(288 1490 0)
(290 1490 0)
(292 1490 0)
(294 1490 0)
(296 1490 0)
(298 1490 0)
(300 1490 0)
(302 1490 0)
(304 1490 0)
(306 1490 0)
(308 1490 0)
(310 1490 0)
(312 1490 0)
(314 1490 0)
(316 1490 0)
(318 1490 0)
(320 1490 0)
(322 1490 0)
(324 1490 0)
(326 1490 0)
(328 1490 0)
(330 1490 0)
(332 1490 0)
(334 1490 0)
(336 1490 0)
(338 1490 0)
(340 1490 0)
(342 1490 0)
(344 1490 0)
(346 1490 0)
(348 1490 0)
(350 1490 0)
(352 1490 0)
(354 1490 0)
(356 1490 0)
(358 1490 0)
(360 1490 0)
(362 1490 0)
(364 1490 0)
(366 1490 0)
(368 1490 0)
(370 1490 0)
(372 1490 0)
(374 1490 0)
(376 1490 0)
(378 1490 0)
(380 1490 0)
(382 1490 0)
(384 1490 0)
(386 1490 0)
(388 1490 0)
(390 1490 0)
(392 1490 0)
(394 1490 0)
(396 1490 0)
(398 1490 0)
(400 1490 0)
(402 1490 0)
(404 1490 0)
(406 1490 0)
(408 1490 0)
(410 1490 0)
(412 1490 0)
(414 1490 0)
(416 1490 0)
(418 1490 0)
(420 1490 0)
(422 1490 0)
(424 1490 0)
(426 1490 0)
(428 1490 0)
(430 1490 0)
(432 1490 0)
(434 1490 0)
(436 1490 0)
(438 1490 0)
(440 1490 0)
(442 1490 0)
(444 1490 0)
(446 1490 0)
(448 1490 0)
(450 1490 0)
(452 1490 0)
(454 1490 0)
(456 1490 0)
(458 1490 0)
(460 1490 0)
(462 1490 0)
(464 1490 0)
(466 1490 0)
(468 1490 0)
(470 1490 0)
(472 1490 0)
(474 1490 0)
(476 1490 0)
(478 1490 0)
(480 1490 0)
(482 1490 0)
(484 1490 0)
(486 1490 0)
(488 1490 0)
(490 1490 0)
(492 1490 0)
(494 1490 0)
(496 1490 0)
(498 1490 0)
(500 1490 0)
(502 1490 0)
(504 1490 0)
(506 1490 0)
(508 1490 0)
(510 1490 0)
(512 1490 0)
(514 1490 0)
(516 1490 0)
(518 1490 0)
(520 1490 0)
(522 1490 0)
(524 1490 0)
(526 1490 0)
(528 1490 0)
(530 1490 0)
(532 1490 0)
(534 1490 0)
(536 1490 0)
(538 1490 0)
(540 1490 0)
(542 1490 0)
(544 1490 0)
(546 1490 0)
(548 1490 0)
(550 1490 0)
(552 1490 0)
(554 1490 0)
(556 1490 0)
(558 1490 0)
(560 1490 0)
(562 1490 0)
(564 1490 0)
(566 1490 0)
(568 1490 0)
(570 1490 0)
(572 1490 0)
(574 1490 0)
(576 1490 0)
(578 1490 0)
(580 1490 0)
(582 1490 0)
(584 1490 0)
(586 1490 0)
(588 1490 0)
(590 1490 0)
(592 1490 0)
(594 1490 0)
(596 1490 0)
(598 1490 0)
(600 1490 0)
(602 1490 0)
(604 1490 0)
(606 1490 0)
(608 1490 0)
(610 1490 0)
(612 1490 0)
(614 1490 0)
(616 1490 0)
(618 1490 0)
(620 1490 0)
(622 1490 0)
(624 1490 0)
(626 1490 0)
(628 1490 0)
(630 1490 0)
(632 1490 0)
(634 1490 0)
(636 1490 0)
(638 1490 0)
(640 1490 0)
(642 1490 0)
(644 1490 0)
(646 1490 0)
(648 1490 0)
(650 1490 0)
(652 1490 0)
(654 1490 0)
(656 1490 0)
(658 1490 0)
(660 1490 0)
(662 1490 0)
(664 1490 0)
(666 1490 0)
(668 1490 0)
(670 1490 0)
(672 1490 0)
(674 1490 0)
(676 1490 0)
(678 1490 0)
(680 1490 0)
(682 1490 0)
(684 1490 0)
(686 1490 0)
(688 1490 0)
(690 1490 0)
(692 1490 0)
(694 1490 0)
(696 1490 0)
(698 1490 0)
(700 1490 0)
(702 1490 0)
(704 1490 0)
(706 1490 0)
(708 1490 0)
(710 1490 0)
(712 1490 0)
(714 1490 0)
(716 1490 0)
(718 1490 0)
(720 1490 0)
(722 1490 0)
(724 1490 0)
(726 1490 0)
(728 1490 0)
(730 1490 0)
(732 1490 0)
(734 1490 0)
(736 1490 0)
(738 1490 0)
(740 1490 0)
(742 1490 0)
(744 1490 0)
(746 1490 0)
(748 1490 0)
(750 1490 0)
(752 1490 0)
(754 1490 0)
(756 1490 0)
(758 1490 0)
(760 1490 0)
(762 1490 0)
(764 1490 0)
(766 1490 0)
(768 1490 0)
(770 1490 0)
(772 1490 0)
(774 1490 0)
(776 1490 0)
(778 1490 0)
(780 1490 0)
(782 1490 0)
(784 1490 0)
(786 1490 0)
(788 1490 0)
(790 1490 0)
(792 1490 0)
(794 1490 0)
(796 1490 0)
(798 1490 0)
(800 1490 0)
(802 1490 0)
(804 1490 0)
(806 1490 0)
(808 1490 0)
(810 1490 0)
(812 1490 0)
(814 1490 0)
(816 1490 0)
(818 1490 0)
(820 1490 0)
(822 1490 0)
(824 1490 0)
(826 1490 0)
(828 1490 0)
(830 1490 0)
(832 1490 0)
(834 1490 0)
(836 1490 0)
(838 1490 0)
(840 1490 0)
(842 1490 0)
(844 1490 0)
(846 1490 0)
(848 1490 0)
(850 1490 0)
(852 1490 0)
(854 1490 0)
(856 1490 0)
(858 1490 0)
(860 1490 0)
(862 1490 0)
(864 1490 0)
(866 1490 0)
(868 1490 0)
(870 1490 0)
(872 1490 0)
(874 1490 0)
(876 1490 0)
(878 1490 0)
(880 1490 0)
(882 1490 0)
(884 1490 0)
(886 1490 0)
(888 1490 0)
(890 1490 0)
(892 1490 0)
(894 1490 0)
(896 1490 0)
(898 1490 0)
(900 1490 0)
(902 1490 0)
(904 1490 0)
(906 1490 0)
(908 1490 0)
(910 1490 0)
(912 1490 0)
(914 1490 0)
(916 1490 0)
(918 1490 0)
(920 1490 0)
(922 1490 0)
(924 1490 0)
(926 1490 0)
(928 1490 0)
(930 1490 0)
(932 1490 0)
(934 1490 0)
(936 1490 0)
(938 1490 0)
(940 1490 0)
(942 1490 0)
(944 1490 0)
(946 1490 0)
(948 1490 0)
(950 1490 0)
(952 1490 0)
(954 1490 0)
(956 1490 0)
(958 1490 0)
(960 1490 0)
(962 1490 0)
(964 1490 0)
(966 1490 0)
(968 1490 0)
(970 1490 0)
(972 1490 0)
(974 1490 0)
(976 1490 0)
(978 1490 0)
(980 1490 0)
(982 1490 0)
(984 1490 0)
(986 1490 0)
(988 1490 0)
(990 1490 0)
(992 1490 0)
(994 1490 0)
(996 1490 0)
(998 1490 0)
(1000 1490 0)
(1002 1490 0)
(1004 1490 0)
(1006 1490 0)
(1008 1490 0)
(1010 1490 0)
(1012 1490 0)
(1014 1490 0)
(1016 1490 0)
(1018 1490 0)
(1020 1490 0)
(1022 1490 0)
(1024 1490 0)
(1026 1490 0)
(1028 1490 0)
(1030 1490 0)
(1032 1490 0)
(1034 1490 0)
(1036 1490 0)
(1038 1490 0)
(1040 1490 0)
(1042 1490 0)
(1044 1490 0)
(1046 1490 0)
(1048 1490 0)
(1050 1490 0)
(1052 1490 0)
(1054 1490 0)
(1056 1490 0)
(1058 1490 0)
(1060 1490 0)
(1062 1490 0)
(1064 1490 0)
(1066 1490 0)
(1068 1490 0)
(1070 1490 0)
(1072 1490 0)
(1074 1490 0)
(1076 1490 0)
(1078 1490 0)
(1080 1490 0)
(1082 1490 0)
(1084 1490 0)
(1086 1490 0)
(1088 1490 0)
(1090 1490 0)
(1092 1490 0)
(1094 1490 0)
(1096 1490 0)
(1098 1490 0)
(1100 1490 0)
(1102 1490 0)
(1104 1490 0)
(1106 1490 0)
(1108 1490 0)
(1110 1490 0)
(1112 1490 0)
(1114 1490 0)
(1116 1490 0)
(1118 1490 0)
(1120 1490 0)
(1122 1490 0)
(1124 1490 0)
(1126 1490 0)
(1128 1490 0)
(1130 1490 0)
(1132 1490 0)
(1134 1490 0)
(1136 1490 0)
(1138 1490 0)
(1140 1490 0)
(1142 1490 0)
(1144 1490 0)
(1146 1490 0)
(1148 1490 0)
(1150 1490 0)
(1152 1490 0)
(1154 1490 0)
(1156 1490 0)
(1158 1490 0)
(1160 1490 0)
(1162 1490 0)
(1164 1490 0)
(1166 1490 0)
(1168 1490 0)
(1170 1490 0)
(1172 1490 0)
(1174 1490 0)
(1176 1490 0)
(1178 1490 0)
(1180 1490 0)
(1182 1490 0)
(1184 1490 0)
(1186 1490 0)
(1188 1490 0)
(1190 1490 0)
(1192 1490 0)
(1194 1490 0)
(1196 1490 0)
(1198 1490 0)
(1200 1490 0)
(1202 1490 0)
(1204 1490 0)
(1206 1490 0)
(1208 1490 0)
(1210 1490 0)
(1212 1490 0)
(1214 1490 0)
(1216 1490 0)
(1218 1490 0)
(1220 1490 0)
(1222 1490 0)
(1224 1490 0)
(1226 1490 0)
(1228 1490 0)
(1230 1490 0)
(1232 1490 0)
(1234 1490 0)
(1236 1490 0)
(1238 1490 0)
(1240 1490 0)
(1242 1490 0)
(1244 1490 0)
(1246 1490 0)
(1248 1490 0)
(1250 1490 0)
(1252 1490 0)
(1254 1490 0)
(1256 1490 0)
(1258 1490 0)
(1260 1490 0)
(1262 1490 0)
(1264 1490 0)
(1266 1490 0)
(1268 1490 0)
(1270 1490 0)
(1272 1490 0)
(1274 1490 0)
(1276 1490 0)
(1278 1490 0)
(1280 1490 0)
(1282 1490 0)
(1284 1490 0)
(1286 1490 0)
(1288 1490 0)
(1290 1490 0)
(1292 1490 0)
(1294 1490 0)
(1296 1490 0)
(1298 1490 0)
(1300 1490 0)
(1302 1490 0)
(1304 1490 0)
(1306 1490 0)
(1308 1490 0)
(1310 1490 0)
(1312 1490 0)
(1314 1490 0)
(1316 1490 0)
(1318 1490 0)
(1320 1490 0)
(1322 1490 0)
(1324 1490 0)
(1326 1490 0)
(1328 1490 0)
(1330 1490 0)
(1332 1490 0)
(1334 1490 0)
(1336 1490 0)
(1338 1490 0)
(1340 1490 0)
(1342 1490 0)
(1344 1490 0)
(1346 1490 0)
(1348 1490 0)
(1350 1490 0)
(1352 1490 0)
(1354 1490 0)
(1356 1490 0)
(1358 1490 0)
(1360 1490 0)
(1362 1490 0)
(1364 1490 0)
(1366 1490 0)
(1368 1490 0)
(1370 1490 0)
(1372 1490 0)
(1374 1490 0)
(1376 1490 0)
(1378 1490 0)
(1380 1490 0)
(1382 1490 0)
(1384 1490 0)
(1386 1490 0)
(1388 1490 0)
(1390 1490 0)
(1392 1490 0)
(1394 1490 0)
(1396 1490 0)
(1398 1490 0)
(1400 1490 0)
(1402 1490 0)
(1404 1490 0)
(1406 1490 0)
(1408 1490 0)
(1410 1490 0)
(1412 1490 0)
(1414 1490 0)
(1416 1490 0)
(1418 1490 0)
(1420 1490 0)
(1422 1490 0)
(1424 1490 0)
(1426 1490 0)
(1428 1490 0)
(1430 1490 0)
(0 1488 10)
(1430 1488 10)
(0 1488 0)
(1430 1488 0)
(0 1486 0)
(1430 1486 0)
(0 1484 0)
(1430 1484 0)
(0 1482 0)
(1430 1482 0)
(0 1480 0)
(1430 1480 0)
(0 1478 0)
(1430 1478 0)
(0 1476 0)
(1430 1476 0)
(0 1474 0)
(1430 1474 0)
(0 1472 0)
(1430 1472 0)
(0 1470 0)
(1430 1470 0)
(0 1468 0)
(1430 1468 0)
(0 1466 0)
(1430 1466 0)
(0 1464 0)
(1430 1464 0)
(0 1462 0)
(1430 1462 0)
(0 1460 0)
(1430 1460 0)
(0 1458 0)
(1430 1458 0)
(0 1456 0)
(1430 1456 0)
(0 1454 0)
(1430 1454 0)
(0 1452 0)
(1430 1452 0)
(0 1450 0)
(1430 1450 0)
(0 1448 0)
(1430 1448 0)
(0 1446 0)
(1430 1446 0)
(0 1444 0)
(1430 1444 0)
(0 1442 0)
(1430 1442 0)
(0 1440 0)
(1430 1440 0)
(0 1438 0)
(1430 1438 0)
(0 1436 0)
(1430 1436 0)
(0 1434 0)
(1430 1434 0)
(0 1432 0)
(1430 1432 0)
(0 1430 0)
(1430 1430 0)
(0 1428 0)
(1430 1428 0)
(0 1426 0)
(1430 1426 0)
(0 1424 0)
(1430 1424 0)
(0 1422 0)
(1430 1422 0)
(0 1420 0)
(1430 1420 0)
(0 1418 0)
(1430 1418 0)
(0 1416 0)
(1430 1416 0)
(0 1414 0)
(1430 1414 0)
(0 1412 0)
(1430 1412 0)
(0 1410 0)
(1430 1410 0)
(0 1408 0)
(1430 1408 0)
(0 1406 0)
(1430 1406 0)
(0 1404 0)
(1430 1404 0)
(0 1402 0)
(1430 1402 0)
(0 1400 0)
(1430 1400 0)
(0 1398 0)
(1430 1398 0)
(0 1396 0)
(1430 1396 0)
(0 1394 0)
(1430 1394 0)
(0 1392 0)
(1430 1392 0)
(0 1390 0)
(1430 1390 0)
(0 1388 0)
(1430 1388 0)
(0 1386 0)
(1430 1386 0)
(0 1384 0)
(1430 1384 0)
(0 1382 0)
(1430 1382 0)
(0 1380 0)
(1430 1380 0)
(0 1378 0)
(1430 1378 0)
(0 1376 0)
(1430 1376 0)
(0 1374 0)
(1430 1374 0)
(0 1372 0)
(1430 1372 0)
(0 1370 0)
(1430 1370 0)
(0 1368 0)
(1430 1368 0)
(0 1366 0)
(1430 1366 0)
(0 1364 0)
(1430 1364 0)
(0 1362 0)
(1430 1362 0)
(0 1360 0)
(1430 1360 0)
(0 1358 0)
(1430 1358 0)
(0 1356 0)
(1430 1356 0)
(0 1354 0)
(1430 1354 0)
(0 1352 0)
(1430 1352 0)
(0 1350 0)
(1430 1350 0)
(0 1348 0)
(1430 1348 0)
(0 1346 0)
(1430 1346 0)
(0 1344 0)
(1430 1344 0)
(0 1342 0)
(1430 1342 0)
(0 1340 0)
(1430 1340 0)
(0 1338 0)
(1430 1338 0)
(0 1336 0)
(1430 1336 0)
(0 1334 0)
(1430 1334 0)
(0 1332 0)
(1430 1332 0)
(0 1330 0)
(1430 1330 0)
(0 1328 0)
(1430 1328 0)
(0 1326 0)
(1430 1326 0)
(0 1324 0)
(1430 1324 0)
(0 1322 0)
(1430 1322 0)
(0 1320 0)
(1430 1320 0)
(0 1318 0)
(1430 1318 0)
(0 1316 0)
(1430 1316 0)
(0 1314 0)
(1430 1314 0)
(0 1312 0)
(1430 1312 0)
(0 1310 0)
(1430 1310 0)
(0 1308 0)
(1430 1308 0)
(0 1306 0)
(1430 1306 0)
(0 1304 0)
(1430 1304 0)
(0 1302 0)
(1430 1302 0)
(0 1300 0)
(1430 1300 0)
(0 1298 0)
(1430 1298 0)
(0 1296 0)
(1430 1296 0)
(0 1294 0)
(1430 1294 0)
(0 1292 0)
(1430 1292 0)
(0 1290 0)
(1430 1290 0)
(0 1288 0)
(1430 1288 0)
(0 1286 0)
(1430 1286 0)
(0 1284 0)
(1430 1284 0)
(0 1282 0)
(1430 1282 0)
(0 1280 0)
(1430 1280 0)
(0 1278 0)
(1430 1278 0)
(0 1276 0)
(1430 1276 0)
(0 1274 0)
(1430 1274 0)
(0 1272 0)
(1430 1272 0)
(0 1270 0)
(1430 1270 0)
(0 1268 0)
(1430 1268 0)
(0 1266 0)
(1430 1266 0)
(0 1264 0)
(1430 1264 0)
(0 1262 0)
(1430 1262 0)
(0 1260 0)
(1430 1260 0)
(0 1258 0)
(1430 1258 0)
(0 1256 0)
(1430 1256 0)
(0 1254 0)
(1430 1254 0)
(0 1252 0)
(1430 1252 0)
(0 1250 0)
(1430 1250 0)
(0 1248 0)
(1430 1248 0)
(0 1246 0)
(1430 1246 0)
(0 1244 0)
(1430 1244 0)
(0 1242 0)
(1430 1242 0)
(0 1240 0)
(1430 1240 0)
(0 1238 0)
(1430 1238 0)
(0 1236 0)
(1430 1236 0)
(0 1234 0)
(1430 1234 0)
(0 1232 0)
(1430 1232 0)
(0 1230 0)
(1430 1230 0)
(0 1228 0)
(1430 1228 0)
(0 1226 0)
(1430 1226 0)
(0 1224 0)
(1430 1224 0)
(0 1222 0)
(1430 1222 0)
(0 1220 0)
(1430 1220 0)
(0 1218 0)
(1430 1218 0)
(0 1216 0)
(1430 1216 0)
(0 1214 0)
(1430 1214 0)
(0 1212 0)
(1430 1212 0)
(0 1210 0)
(1430 1210 0)
(0 1208 0)
(1430 1208 0)
(0 1206 0)
(1430 1206 0)
(0 1204 0)
(1430 1204 0)
(0 1202 0)
(1430 1202 0)
(0 1200 0)
(1430 1200 0)
(0 1198 0)
(1430 1198 0)
(0 1196 0)
(1430 1196 0)
(0 1194 0)
(1430 1194 0)
(0 1192 0)
(1430 1192 0)
(0 1190 0)
(1430 1190 0)
(0 1188 0)
(1430 1188 0)
(0 1186 0)
(1430 1186 0)
(0 1184 0)
(1430 1184 0)
(0 1182 0)
(1430 1182 0)
(0 1180 0)
(1430 1180 0)
(0 1178 0)
(1430 1178 0)
(0 1176 0)
(1430 1176 0)
(0 1174 0)
(1430 1174 0)
(0 1172 0)
(1430 1172 0)
(0 1170 0)
(1430 1170 0)
(0 1168 0)
(1430 1168 0)
(0 1166 0)
(1430 1166 0)
(0 1164 0)
(1430 1164 0)
(0 1162 0)
(1430 1162 0)
(0 1160 0)
(1430 1160 0)
(0 1158 0)
(1430 1158 0)
(0 1156 0)
(1430 1156 0)
(0 1154 0)
(1430 1154 0)
(0 1152 0)
(1430 1152 0)
(0 1150 0)
(1430 1150 0)
(0 1148 0)
(1430 1148 0)
(0 1146 0)
(1430 1146 0)
(0 1144 0)
(1430 1144 0)
(0 1142 0)
(1430 1142 0)
(0 1140 0)
(1430 1140 0)
(0 1138 0)
(1430 1138 0)
(0 1136 0)
(1430 1136 0)
(0 1134 0)
(1430 1134 0)
(0 1132 0)
(1430 1132 0)
(0 1130 0)
(1430 1130 0)
(0 1128 0)
(1430 1128 0)
(0 1126 0)
(1430 1126 0)
(0 1124 0)
(1430 1124 0)
(0 1122 0)
(1430 1122 0)
(0 1120 0)
(1430 1120 0)
(0 1118 0)
(1430 1118 0)
(0 1116 0)
(1430 1116 0)
(0 1114 0)
(1430 1114 0)
(0 1112 0)
(1430 1112 0)
(0 1110 0)
(1430 1110 0)
(0 1108 0)
(1430 1108 0)
(0 1106 0)
(1430 1106 0)
(0 1104 0)
(1430 1104 0)
(0 1102 0)
(1430 1102 0)
(0 1100 0)
(1430 1100 0)
(0 1098 0)
(1430 1098 0)
(0 1096 0)
(1430 1096 0)
(0 1094 0)
(1430 1094 0)
(0 1092 0)
(1430 1092 0)
(0 1090 0)
(1430 1090 0)
(0 1088 0)
(1430 1088 0)
(0 1086 0)
(1430 1086 0)
(0 1084 0)
(1430 1084 0)
(0 1082 0)
(1430 1082 0)
(0 1080 0)
(1430 1080 0)
(0 1078 0)
(1430 1078 0)
(0 1076 0)
(1430 1076 0)
(0 1074 0)
(1430 1074 0)
(0 1072 0)
(1430 1072 0)
(0 1070 0)
(1430 1070 0)
(0 1068 0)
(1430 1068 0)
(0 1066 0)
(1430 1066 0)
(0 1064 0)
(1430 1064 0)
(0 1062 0)
(1430 1062 0)
(0 1060 0)
(1430 1060 0)
(0 1058 0)
(1430 1058 0)
(0 1056 0)
(1430 1056 0)
(0 1054 0)
(1430 1054 0)
(0 1052 0)
(1430 1052 0)
(0 1050 0)
(1430 1050 0)
(0 1048 0)
(1430 1048 0)
(0 1046 0)
(1430 1046 0)
(0 1044 0)
(1430 1044 0)
(0 1042 0)
(1430 1042 0)
(0 1040 0)
(1430 1040 0)
(0 1038 0)
(1430 1038 0)
(0 1036 0)
(1430 1036 0)
(0 1034 0)
(1430 1034 0)
(0 1032 0)
(1430 1032 0)
(0 1030 0)
(1430 1030 0)
(0 1028 0)
(1430 1028 0)
(0 1026 0)
(1430 1026 0)
(0 1024 0)
(1430 1024 0)
(0 1022 0)
(1430 1022 0)
(0 1020 0)
(1430 1020 0)
(0 1018 0)
(1430 1018 0)
(0 1016 0)
(1430 1016 0)
(0 1014 0)
(1430 1014 0)
(0 1012 0)
(1430 1012 0)
(0 1010 0)
(1430 1010 0)
(0 1008 0)
(1430 1008 0)
(0 1006 0)
(1430 1006 0)
(0 1004 0)
(1430 1004 0)
(0 1002 0)
(1430 1002 0)
(0 1000 0)
(1430 1000 0)
(0 998 0)
(1430 998 0)
(0 996 0)
(1430 996 0)
(0 994 0)
(1430 994 0)
(0 992 0)
(1430 992 0)
(0 990 0)
(1430 990 0)
(0 988 0)
(1430 988 0)
(0 986 0)
(1430 986 0)
(0 984 0)
(1430 984 0)
(0 982 0)
(1430 982 0)
(0 980 0)
(1430 980 0)
(0 978 0)
(1430 978 0)
(0 976 0)
(1430 976 0)
(0 974 0)
(1430 974 0)
(0 972 0)
(1430 972 0)
(0 970 0)
(1430 970 0)
(0 968 0)
(1430 968 0)
(0 966 0)
(1430 966 0)
(0 964 0)
(1430 964 0)
(0 962 0)
(1430 962 0)
(0 960 0)
(1430 960 0)
(0 958 0)
(1430 958 0)
(0 956 0)
(1430 956 0)
(0 954 0)
(1430 954 0)
(0 952 0)
(1430 952 0)
(0 950 0)
(1430 950 0)
(0 948 0)
(1430 948 0)
(0 946 0)
(1430 946 0)
(0 944 0)
(1430 944 0)
(0 942 0)
(1430 942 0)
(0 940 0)
(1430 940 0)
(0 938 0)
(1430 938 0)
(0 936 0)
(1430 936 0)
(0 934 0)
(1430 934 0)
(0 932 0)
(1430 932 0)
(0 930 0)
(1430 930 0)
(0 928 0)
(1430 928 0)
(0 926 0)
(1430 926 0)
(0 924 0)
(1430 924 0)
(0 922 0)
(1430 922 0)
(0 920 0)
(1430 920 0)
(0 918 0)
(1430 918 0)
(0 916 0)
(1430 916 0)
(0 914 0)
(1430 914 0)
(0 912 0)
(1430 912 0)
(0 910 0)
(1430 910 0)
(0 908 0)
(1430 908 0)
(0 906 0)
(1430 906 0)
(0 904 0)
(1430 904 0)
(0 902 0)
(1430 902 0)
(0 900 0)
(1430 900 0)
(0 898 0)
(1430 898 0)
(0 896 0)
(1430 896 0)
(0 894 0)
(1430 894 0)
(0 892 0)
(1430 892 0)
(0 890 0)
(1430 890 0)
(0 888 0)
(1430 888 0)
(0 886 0)
(1430 886 0)
(0 884 0)
(1430 884 0)
(0 882 0)
(1430 882 0)
(0 880 0)
(1430 880 0)
(0 878 0)
(1430 878 0)
(0 876 0)
(1430 876 0)
(0 874 0)
(1430 874 0)
(0 872 0)
(1430 872 0)
(0 870 0)
(1430 870 0)
(0 868 0)
(1430 868 0)
(0 866 0)
(1430 866 0)
(0 864 0)
(1430 864 0)
(0 862 0)
(1430 862 0)
(0 860 0)
(1430 860 0)
(0 858 0)
(1430 858 0)
(0 856 0)
(1430 856 0)
(0 854 0)
(1430 854 0)
(0 852 0)
(1430 852 0)
(0 850 0)
(1430 850 0)
(0 848 0)
(1430 848 0)
(0 846 0)
(1430 846 0)
(0 844 0)
(1430 844 0)
(0 842 0)
(1430 842 0)
(0 840 0)
(1430 840 0)
(0 838 0)
(1430 838 0)
(0 836 0)
(1430 836 0)
(0 834 0)
(1430 834 0)
(0 832 0)
(1430 832 0)
(0 830 0)
(1430 830 0)
(0 828 0)
(1430 828 0)
(0 826 0)
(1430 826 0)
(0 824 0)
(1430 824 0)
(0 822 0)
(1430 822 0)
(0 820 0)
(1430 820 0)
(0 818 0)
(1430 818 0)
(0 816 0)
(1430 816 0)
(0 814 0)
(1430 814 0)
(0 812 0)
(1430 812 0)
(0 810 0)
(1430 810 0)
(0 808 0)
(1430 808 0)
(0 806 0)
(1430 806 0)
(0 804 0)
(1430 804 0)
(0 802 0)
(1430 802 0)
(0 800 0)
(1430 800 0)
(0 798 0)
(1430 798 0)
(0 796 0)
(1430 796 0)
(0 794 0)
(1430 794 0)
(0 792 0)
(1430 792 0)
(0 790 0)
(1430 790 0)
(0 788 0)
(1430 788 0)
(0 786 0)
(1430 786 0)
(0 784 0)
(1430 784 0)
(0 782 0)
(1430 782 0)
(0 780 0)
(1430 780 0)
(0 778 0)
(1430 778 0)
(0 776 0)
(1430 776 0)
(0 774 0)
(1430 774 0)
(0 772 0)
(1430 772 0)
(0 770 0)
(1430 770 0)
(0 768 0)
(1430 768 0)
(0 766 0)
(1430 766 0)
(0 764 0)
(1430 764 0)
(0 762 0)
(1430 762 0)
(0 760 0)
(1430 760 0)
(0 758 0)
(1430 758 0)
(0 756 0)
(1430 756 0)
(0 754 0)
(1430 754 0)
(0 752 0)
(1430 752 0)
(0 750 0)
(1430 750 0)
(0 748 0)
(1430 748 0)
(0 746 0)
(1430 746 0)
(0 744 0)
(1430 744 0)
(0 742 0)
(1430 742 0)
(0 740 0)
(1430 740 0)
(0 738 0)
(1430 738 0)
(0 736 0)
(1430 736 0)
(0 734 0)
(1430 734 0)
(0 732 0)
(1430 732 0)
(0 730 0)
(1430 730 0)
(0 728 0)
(1430 728 0)
(0 726 0)
(1430 726 0)
(0 724 0)
(1430 724 0)
(0 722 0)
(1430 722 0)
(0 720 0)
(1430 720 0)
(0 718 0)
(1430 718 0)
(0 716 0)
(1430 716 0)
(0 714 0)
(1430 714 0)
(0 712 0)
(1430 712 0)
(0 710 0)
(1430 710 0)
(0 708 0)
(1430 708 0)
(0 706 0)
(1430 706 0)
(0 704 0)
(1430 704 0)
(0 702 0)
(1430 702 0)
(0 700 0)
(1430 700 0)
(0 698 0)
(1430 698 0)
(0 696 0)
(1430 696 0)
(0 694 0)
(1430 694 0)
(0 692 0)
(1430 692 0)
(0 690 0)
(1430 690 0)
(0 688 0)
(1430 688 0)
(0 686 0)
(1430 686 0)
(0 684 0)
(1430 684 0)
(0 682 0)
(1430 682 0)
(0 680 0)
(1430 680 0)
(0 678 0)
(1430 678 0)
(0 676 0)
(1430 676 0)
(0 674 0)
(1430 674 0)
(0 672 0)
(1430 672 0)
(0 670 0)
(1430 670 0)
(0 668 0)
(1430 668 0)
(0 666 0)
(1430 666 0)
(0 664 0)
(1430 664 0)
(0 662 0)
(1430 662 0)
(0 660 0)
(1430 660 0)
(0 658 0)
(1430 658 0)
(0 656 0)
(1430 656 0)
(0 654 0)
(1430 654 0)
(0 652 0)
(1430 652 0)
(0 650 0)
(1430 650 0)
(0 648 0)
(1430 648 0)
(0 646 0)
(1430 646 0)
(0 644 0)
(1430 644 0)
(0 642 0)
(1430 642 0)
(0 640 0)
(1430 640 0)
(0 638 0)
(1430 638 0)
(0 636 0)
(1430 636 0)
(0 634 0)
(1430 634 0)
(0 632 0)
(1430 632 0)
(0 630 0)
(1430 630 0)
(0 628 0)
(1430 628 0)
(0 626 0)
(1430 626 0)
(0 624 0)
(1430 624 0)
(0 622 0)
(1430 622 0)
(0 620 0)
(1430 620 0)
(0 618 0)
(1430 618 0)
(0 616 0)
(1430 616 0)
(0 614 0)
(1430 614 0)
(0 612 0)
(1430 612 0)
(0 610 0)
(1430 610 0)
(0 608 0)
(1430 608 0)
(0 606 0)
(1430 606 0)
(0 604 0)
(1430 604 0)
(0 602 0)
(1430 602 0)
(0 600 0)
(1430 600 0)
(0 598 0)
(1430 598 0)
(0 596 0)
(1430 596 0)
(0 594 0)
(1430 594 0)
(0 592 0)
(1430 592 0)
(0 590 0)
(1430 590 0)
(0 588 0)
(1430 588 0)
(0 586 0)
(1430 586 0)
(0 584 0)
(1430 584 0)
(0 582 0)
(1430 582 0)
(0 580 0)
(1430 580 0)
(0 578 0)
(1430 578 0)
(0 576 0)
(1430 576 0)
(0 574 0)
(1430 574 0)
(0 572 0)
(1430 572 0)
(0 570 0)
(1430 570 0)
(0 568 0)
(1430 568 0)
(0 566 0)
(1430 566 0)
(0 564 0)
(1430 564 0)
(0 562 0)
(1430 562 0)
(0 560 0)
(1430 560 0)
(0 558 0)
(1430 558 0)
(0 556 0)
(1430 556 0)
(0 554 0)
(1430 554 0)
(0 552 0)
(1430 552 0)
(0 550 0)
(1430 550 0)
(0 548 0)
(1430 548 0)
(0 546 0)
(1430 546 0)
(0 544 0)
(1430 544 0)
(0 542 0)
(1430 542 0)
(0 540 0)
(1430 540 0)
(0 538 0)
(1430 538 0)
(0 536 0)
(1430 536 0)
(0 534 0)
(1430 534 0)
(0 532 0)
(1430 532 0)
(0 530 0)
(1430 530 0)
(0 528 0)
(1430 528 0)
(0 526 0)
(1430 526 0)
(0 524 0)
(1430 524 0)
(0 522 0)
(1430 522 0)
(0 520 0)
(1430 520 0)
(0 518 0)
(1430 518 0)
(0 516 0)
(1430 516 0)
(0 514 0)
(1430 514 0)
(0 512 0)
(1430 512 0)
(0 510 0)
(1430 510 0)
(0 508 0)
(1430 508 0)
(0 506 0)
(1430 506 0)
(0 504 0)
(1430 504 0)
(0 502 0)
(1430 502 0)
(0 500 0)
(1430 500 0)
(0 498 0)
(1430 498 0)
(0 496 0)
(1430 496 0)
(0 494 0)
(1430 494 0)
(0 492 0)
(1430 492 0)
(0 490 0)
(1430 490 0)
(0 488 0)
(1430 488 0)
(0 486 0)
(1430 486 0)
(0 484 0)
(1430 484 0)
(0 482 0)
(1430 482 0)
(0 480 0)
(1430 480 0)
(0 478 0)
(1430 478 0)
(0 476 0)
(1430 476 0)
(0 474 0)
(1430 474 0)
(0 472 0)
(1430 472 0)
(0 470 0)
(1430 470 0)
(0 468 0)
(1430 468 0)
(0 466 0)
(1430 466 0)
(0 464 0)
(1430 464 0)
(0 462 0)
(1430 462 0)
(0 460 0)
(1430 460 0)
(0 458 0)
(1430 458 0)
(0 456 0)
(1430 456 0)
(0 454 0)
(1430 454 0)
(0 452 0)
(1430 452 0)
(0 450 0)
(1430 450 0)
(0 448 0)
(1430 448 0)
(0 446 0)
(1430 446 0)
(0 444 0)
(1430 444 0)
(0 442 0)
(1430 442 0)
(0 440 0)
(1430 440 0)
(0 438 0)
(1430 438 0)
(0 436 0)
(1430 436 0)
(0 434 0)
(1430 434 0)
(0 432 0)
(1430 432 0)
(0 430 0)
(1430 430 0)
(0 428 0)
(1430 428 0)
(0 426 0)
(1430 426 0)
(0 424 0)
(1430 424 0)
(0 422 0)
(1430 422 0)
(0 420 0)
(1430 420 0)
(0 418 0)
(1430 418 0)
(0 416 0)
(1430 416 0)
(0 414 0)
(1430 414 0)
(0 412 0)
(1430 412 0)
(0 410 0)
(1430 410 0)
(0 408 0)
(1430 408 0)
(0 406 0)
(1430 406 0)
(0 404 0)
(1430 404 0)
(0 402 0)
(1430 402 0)
(0 400 0)
(1430 400 0)
(0 398 0)
(1430 398 0)
(0 396 0)
(1430 396 0)
(0 394 0)
(1430 394 0)
(0 392 0)
(1430 392 0)
(0 390 0)
(1430 390 0)
(0 388 0)
(1430 388 0)
(0 386 0)
(1430 386 0)
(0 384 0)
(1430 384 0)
(0 382 0)
(1430 382 0)
(0 380 0)
(1430 380 0)
(0 378 0)
(1430 378 0)
(0 376 0)
(1430 376 0)
(0 374 0)
(1430 374 0)
(0 372 0)
(1430 372 0)
(0 370 0)
(1430 370 0)
(0 368 0)
(1430 368 0)
(0 366 0)
(1430 366 0)
(0 364 0)
(1430 364 0)
(0 362 0)
(1430 362 0)
(0 360 0)
(1430 360 0)
(0 358 0)
(1430 358 0)
(0 356 0)
(1430 356 0)
(0 354 0)
(1430 354 0)
(0 352 0)
(1430 352 0)
(0 350 0)
(1430 350 0)
(0 348 0)
(1430 348 0)
(0 346 0)
(1430 346 0)
(0 344 0)
(1430 344 0)
(0 342 0)
(1430 342 0)
(0 340 0)
(1430 340 0)
(0 338 0)
(1430 338 0)
(0 336 0)
(1430 336 0)
(0 334 0)
(1430 334 0)
(0 332 0)
(1430 332 0)
(0 330 0)
(1430 330 0)
(0 328 0)
(1430 328 0)
(0 326 0)
(1430 326 0)
(0 324 0)
(1430 324 0)
(0 322 0)
(1430 322 0)
(0 320 0)
(1430 320 0)
(0 318 0)
(1430 318 0)
(0 316 0)
(1430 316 0)
(0 314 0)
(1430 314 0)
(0 312 0)
(1430 312 0)
(0 310 0)
(1430 310 0)
(0 308 0)
(1430 308 0)
(0 306 0)
(1430 306 0)
(0 304 0)
(1430 304 0)
(0 302 0)
(1430 302 0)
(0 300 0)
(1430 300 0)
(0 298 0)
(1430 298 0)
(0 296 0)
(1430 296 0)
(0 294 0)
(1430 294 0)
(0 292 0)
(1430 292 0)
(0 290 0)
(1430 290 0)
(0 288 0)
(1430 288 0)
(0 286 0)
(1430 286 0)
(0 284 0)
(1430 284 0)
(0 282 0)
(1430 282 0)
(0 280 0)
(1430 280 0)
(0 278 0)
(1430 278 0)
(0 276 0)
(1430 276 0)
(0 274 0)
(1430 274 0)
(0 272 0)
(1430 272 0)
(0 270 0)
(1430 270 0)
(0 268 0)
(1430 268 0)
(0 266 0)
(1430 266 0)
(0 264 0)
(1430 264 0)
(0 262 0)
(1430 262 0)
(0 260 0)
(1430 260 0)
(0 258 0)
(1430 258 0)
(0 256 0)
(1430 256 0)
(0 254 0)
(1430 254 0)
(0 252 0)
(1430 252 0)
(0 250 0)
(1430 250 0)
(0 248 0)
(1430 248 0)
(0 246 0)
(1430 246 0)
(0 244 0)
(1430 244 0)
(0 242 0)
(1430 242 0)
(0 240 0)
(1430 240 0)
(0 238 0)
(1430 238 0)
(0 236 0)
(1430 236 0)
(0 234 0)
(1430 234 0)
(0 232 0)
(1430 232 0)
(0 230 0)
(1430 230 0)
(0 228 0)
(1430 228 0)
(0 226 0)
(1430 226 0)
(0 224 0)
(1430 224 0)
(0 222 0)
(1430 222 0)
(0 220 0)
(1430 220 0)
(0 218 0)
(1430 218 0)
(0 216 0)
(1430 216 0)
(0 214 0)
(1430 214 0)
(0 212 0)
(1430 212 0)
(0 210 0)
(1430 210 0)
(0 208 0)
(1430 208 0)
(0 206 0)
(1430 206 0)
(0 204 0)
(1430 204 0)
(0 202 0)
(1430 202 0)
(0 200 0)
(1430 200 0)
(0 198 0)
(1430 198 0)
(0 196 0)
(1430 196 0)
(0 194 0)
(1430 194 0)
(0 192 0)
(1430 192 0)
(0 190 0)
(1430 190 0)
(0 188 0)
(1430 188 0)
(0 186 0)
(1430 186 0)
(0 184 0)
(1430 184 0)
(0 182 0)
(1430 182 0)
(0 180 0)
(1430 180 0)
(0 178 0)
(1430 178 0)
(0 176 0)
(1430 176 0)
(0 174 0)
(1430 174 0)
(0 172 0)
(1430 172 0)
(0 170 0)
(1430 170 0)
(0 168 0)
(1430 168 0)
(0 166 0)
(1430 166 0)
(0 164 0)
(1430 164 0)
(0 162 0)
(1430 162 0)
(0 160 0)
(1430 160 0)
(0 158 0)
(1430 158 0)
(0 156 0)
(1430 156 0)
(0 154 0)
(1430 154 0)
(0 152 0)
(1430 152 0)
(0 150 0)
(1430 150 0)
(0 148 0)
(1430 148 0)
(0 146 0)
(1430 146 0)
(0 144 0)
(1430 144 0)
(0 142 0)
(1430 142 0)
(0 140 0)
(1430 140 0)
(0 138 0)
(1430 138 0)
(0 136 0)
(1430 136 0)
(0 134 0)
(1430 134 0)
(0 132 0)
(1430 132 0)
(0 130 0)
(1430 130 0)
(0 128 0)
(1430 128 0)
(0 126 0)
(1430 126 0)
(0 124 0)
(1430 124 0)
(0 122 0)
(1430 122 0)
(0 120 0)
(1430 120 0)
(0 118 0)
(1430 118 0)
(0 116 0)
(1430 116 0)
(0 114 0)
(1430 114 0)
(0 112 0)
(1430 112 0)
(0 110 0)
(1430 110 0)
(0 108 0)
(1430 108 0)
(0 106 0)
(1430 106 0)
(0 104 0)
(1430 104 0)
(0 102 0)
(1430 102 0)
(0 100 0)
(1430 100 0)
(0 98 0)
(1430 98 0)
(0 96 0)
(1430 96 0)
(0 94 0)
(1430 94 0)
(0 92 0)
(1430 92 0)
(0 90 0)
(1430 90 0)
(0 88 0)
(1430 88 0)
(0 86 0)
(1430 86 0)
(0 84 0)
(1430 84 0)
(0 82 0)
(1430 82 0)
(0 80 0)
(1430 80 0)
(0 78 0)
(1430 78 0)
(0 76 0)
(1430 76 0)
(0 74 0)
(1430 74 0)
(0 72 0)
(1430 72 0)
(0 70 0)
(1430 70 0)
(0 68 0)
(1430 68 0)
(0 66 0)
(1430 66 0)
(0 64 0)
(1430 64 0)
(0 62 0)
(1430 62 0)
(0 60 0)
(1430 60 0)
(0 58 0)
(1430 58 0)
(0 56 0)
(1430 56 0)
(0 54 0)
(1430 54 0)
(0 52 0)
(1430 52 0)
(0 50 0)
(1430 50 0)
(0 48 0)
(1430 48 0)
(0 46 0)
(1430 46 0)
(0 44 0)
(1430 44 0)
(0 42 0)
(1430 42 0)
(0 40 0)
(1430 40 0)
(0 38 0)
(1430 38 0)
(0 36 0)
(1430 36 0)
(0 34 0)
(1430 34 0)
(0 32 0)
(1430 32 0)
(0 30 0)
(1430 30 0)
(0 28 0)
(1430 28 0)
(0 26 0)
(1430 26 0)
(0 24 0)
(1430 24 0)
(0 22 0)
(1430 22 0)
(0 20 0)
(1430 20 0)
(0 18 0)
(1430 18 0)
(0 16 0)
(1430 16 0)
(0 14 0)
(1430 14 0)
(0 12 0)
(1430 12 0)
(0 10 0)
(1430 10 0)
(0 8 0)
(1430 8 0)
(0 6 0)
(1430 6 0)
(0 4 0)
(1430 4 0)
(0 2 0)
(1430 2 0)
(2 0 0)
(4 0 0)
(6 0 0)
(8 0 0)
(10 0 0)
(12 0 0)
(14 0 0)
(16 0 0)
(18 0 0)
(20 0 0)
(22 0 0)
(24 0 0)
(26 0 0)
(28 0 0)
(30 0 0)
(32 0 0)
(34 0 0)
(36 0 0)
(38 0 0)
(40 0 0)
(42 0 0)
(44 0 0)
(46 0 0)
(48 0 0)
(50 0 0)
(52 0 0)
(54 0 0)
(56 0 0)
(58 0 0)
(60 0 0)
(62 0 0)
(64 0 0)
(66 0 0)
(68 0 0)
(70 0 0)
(72 0 0)
(74 0 0)
(76 0 0)
(78 0 0)
(80 0 0)
(82 0 0)
(84 0 0)
(86 0 0)
(88 0 0)
(90 0 0)
(92 0 0)
(94 0 0)
(96 0 0)
(98 0 0)
(100 0 0)
(102 0 0)
(104 0 0)
(106 0 0)
(108 0 0)
(110 0 0)
(112 0 0)
(114 0 0)
(116 0 0)
(118 0 0)
(120 0 0)
(122 0 0)
(124 0 0)
(126 0 0)
(128 0 0)
(130 0 0)
(132 0 0)
(134 0 0)
(136 0 0)
(138 0 0)
(140 0 0)
(142 0 0)
(144 0 0)
(146 0 0)
(148 0 0)
(150 0 0)
(152 0 0)
(154 0 0)
(156 0 0)
(158 0 0)
(160 0 0)
(162 0 0)
(164 0 0)
(166 0 0)
(168 0 0)
(170 0 0)
(172 0 0)
(174 0 0)
(176 0 0)
(178 0 0)
(180 0 0)
(182 0 0)
(184 0 0)
(186 0 0)
(188 0 0)
(190 0 0)
(192 0 0)
(194 0 0)
(196 0 0)
(198 0 0)
(200 0 0)
(202 0 0)
(204 0 0)
(206 0 0)
(208 0 0)
(210 0 0)
(212 0 0)
(214 0 0)
(216 0 0)
(218 0 0)
(220 0 0)
(222 0 0)
(224 0 0)
(226 0 0)
(228 0 0)
(230 0 0)
(232 0 0)
(234 0 0)
(236 0 0)
(238 0 0)
(240 0 0)
(242 0 0)
(244 0 0)
(246 0 0)
(248 0 0)
(250 0 0)
(252 0 0)
(254 0 0)
(256 0 0)
(258 0 0)
(260 0 0)
(262 0 0)
(264 0 0)
(266 0 0)
(268 0 0)
(270 0 0)
(272 0 0)
(274 0 0)
(276 0 0)
(278 0 0)
(280 0 0)
(282 0 0)
(284 0 0)
(286 0 0)
(288 0 0)
(290 0 0)
(292 0 0)
(294 0 0)
(296 0 0)
(298 0 0)
(300 0 0)
(302 0 0)
(304 0 0)
(306 0 0)
(308 0 0)
(310 0 0)
(312 0 0)
(314 0 0)
(316 0 0)
(318 0 0)
(320 0 0)
(322 0 0)
(324 0 0)
(326 0 0)
(328 0 0)
(330 0 0)
(332 0 0)
(334 0 0)
(336 0 0)
(338 0 0)
(340 0 0)
(342 0 0)
(344 0 0)
(346 0 0)
(348 0 0)
(350 0 0)
(352 0 0)
(354 0 0)
(356 0 0)
(358 0 0)
(360 0 0)
(362 0 0)
(364 0 0)
(366 0 0)
(368 0 0)
(370 0 0)
(372 0 0)
(374 0 0)
(376 0 0)
(378 0 0)
(380 0 0)
(382 0 0)
(384 0 0)
(386 0 0)
(388 0 0)
(390 0 0)
(392 0 0)
(394 0 0)
(396 0 0)
(398 0 0)
(400 0 0)
(402 0 0)
(404 0 0)
(406 0 0)
(408 0 0)
(410 0 0)
(412 0 0)
(414 0 0)
(416 0 0)
(418 0 0)
(420 0 0)
(422 0 0)
(424 0 0)
(426 0 0)
(428 0 0)
(430 0 0)
(432 0 0)
(434 0 0)
(436 0 0)
(438 0 0)
(440 0 0)
(442 0 0)
(444 0 0)
(446 0 0)
(448 0 0)
(450 0 0)
(452 0 0)
(454 0 0)
(456 0 0)
(458 0 0)
(460 0 0)
(462 0 0)
(464 0 0)
(466 0 0)
(468 0 0)
(470 0 0)
(472 0 0)
(474 0 0)